Version 4
SHEET 1 880 680
WIRE -544 -608 -608 -608
WIRE -384 -608 -464 -608
WIRE -256 -608 -304 -608
WIRE -128 -608 -256 -608
WIRE 32 -608 -48 -608
WIRE -256 -544 -256 -608
WIRE -608 -384 -608 -608
WIRE -336 -384 -608 -384
WIRE -256 -384 -256 -464
WIRE -256 -384 -336 -384
WIRE 32 -384 32 -608
WIRE 32 -384 -256 -384
WIRE -336 -352 -336 -384
WIRE -480 -176 -560 -176
WIRE -336 -176 -400 -176
WIRE -192 -176 -256 -176
WIRE -560 -112 -560 -176
WIRE -192 -80 -192 -176
WIRE -560 32 -560 -32
WIRE -384 32 -560 32
WIRE -192 32 -192 0
WIRE -192 32 -384 32
WIRE -384 64 -384 32
FLAG -336 -352 0
FLAG -384 64 0
SYMBOL res -400 -624 M90
WINDOW 0 0 56 VBottom 2
WINDOW 3 32 56 VTop 2
SYMATTR InstName R1
SYMATTR Value 25
SYMBOL res -272 -560 R0
SYMATTR InstName R2
SYMATTR Value 40
SYMBOL res -448 -624 R90
WINDOW 0 0 56 VBottom 2
WINDOW 3 32 56 VTop 2
SYMATTR InstName R4
SYMATTR Value 15
SYMBOL voltage -32 -608 R90
WINDOW 0 -32 56 VBottom 2
WINDOW 3 32 56 VTop 2
SYMATTR InstName V1
SYMATTR Value 10
SYMBOL voltage -560 -128 R0
SYMATTR InstName VTH
SYMATTR Value 122.5
SYMBOL res -176 16 R180
WINDOW 0 36 76 Left 2
WINDOW 3 36 40 Left 2
SYMATTR InstName RL
SYMATTR Value 30
SYMBOL res -384 -192 R90
WINDOW 0 0 56 VBottom 2
WINDOW 3 32 56 VTop 2
SYMATTR InstName RTH
SYMATTR Value 20
SYMBOL voltage -352 -176 R270
WINDOW 0 32 56 VTop 2
WINDOW 3 -32 56 VBottom 2
SYMATTR InstName Vx
SYMATTR Value 0
TEXT -640 -344 Left 2 !.op
TEXT -568 -928 Left 2 ;Q1          Shreyans Tatiya             16010123325
TEXT -568 -768 Left 2 ;For Finding RTH\n1) Remove Load RL\n2) Deactivate all sources
TEXT -664 -264 Left 2 ;Q1          Shreyans Tatiya             16010123325
TEXT -184 -768 Left 2 ;Vx = 10V\nRth = Vx / I(Vx)
TEXT -592 136 Left 2 ;I(Vx):           2.45            device_current
LINE Normal -544 -608 -608 -608 2
